LTspice 26.0.1 for Windows
Circuit: C:\Users\botaa\Documents\Licenta\Licenta\SimulariLtspice\Standard IEC 60601-2-25\Draft1.net
Start Time: Tue Mar 31 17:35:13 2026
solver = Normal
Maximum thread count: 12
tnom = 27
temp = 27
method = trap
Direct Newton iteration succeeded in finding operating point.
Total elapsed time: 0.054 seconds.

Files loaded:
C:\Users\botaa\Documents\Licenta\Licenta\SimulariLtspice\Standard IEC 60601-2-25\Draft1.net
C:\Users\botaa\AppData\Local\LTspice\lib\sub\ADI.lib

