LTspice 26.0.2 for Windows
Circuit: \\wsl.localhost\Ubuntu\home\andrei\Licenta\SimulariLtspice\Standard IEC 60601-2-25\EkgIdealFinal.net
Start Time: Tue Jun  9 19:34:50 2026
\\wsl.localhost\Ubuntu\home\andrei\Licenta\SimulariLtspice\Standard IEC 60601-2-25\EkgIdealFinal.net(18): File "C:\Users\botaa\Documents\Licenta\Licenta\AchizitionareSemnal\ekg_signal2.txt" not found.
V1 N022 0 PWL file=C:\Users\botaa\Documents\Licenta\Licenta\AchizitionareSemnal\ekg_signal2.txt
              ^^^^^^^^^^^^^^^^^^^^^^^^^^^^^^^^^^^^^^^^^^^^^^^^^^^^^^^^^^^^^^^^^^^^^^^^^^^^^^^^^
