LTspice 26.0.1 for Windows
Circuit: C:\Users\botaa\Documents\Licenta\Licenta\SimulariLtspice\Standard IEC 60601-2-25\EkgTolerante.net
Start Time: Mon Apr  6 16:14:17 2026
solver = Normal
Maximum thread count: 12
tnom = 27
temp = 27
method = trap
Instance "u1:m1": Length shorter than recommended for a level 1 MOSFET.
Instance "u1:m2": Length shorter than recommended for a level 1 MOSFET.
Instance "u1:m16": Length shorter than recommended for a level 1 MOSFET.
Instance "u1:m3": Length shorter than recommended for a level 1 MOSFET.
Instance "u1:m4": Length shorter than recommended for a level 1 MOSFET.
Instance "u1:m15": Length shorter than recommended for a level 1 MOSFET.
Instance "u9:m15": Length shorter than recommended for a level 1 MOSFET.
Instance "u3:m1": Length shorter than recommended for a level 1 MOSFET.
Instance "u3:m2": Length shorter than recommended for a level 1 MOSFET.
Instance "u3:m16": Length shorter than recommended for a level 1 MOSFET.
Instance "u3:m3": Length shorter than recommended for a level 1 MOSFET.
Instance "u3:m4": Length shorter than recommended for a level 1 MOSFET.
Instance "u3:m15": Length shorter than recommended for a level 1 MOSFET.
Instance "u9:m1": Length shorter than recommended for a level 1 MOSFET.
Instance "u9:m2": Length shorter than recommended for a level 1 MOSFET.
Instance "u9:m16": Length shorter than recommended for a level 1 MOSFET.
Instance "u9:m3": Length shorter than recommended for a level 1 MOSFET.
Instance "u9:m4": Length shorter than recommended for a level 1 MOSFET.
Instance "u10:m1": Length shorter than recommended for a level 1 MOSFET.
Instance "u10:m2": Length shorter than recommended for a level 1 MOSFET.
Instance "u10:m16": Length shorter than recommended for a level 1 MOSFET.
Instance "u10:m3": Length shorter than recommended for a level 1 MOSFET.
Instance "u10:m4": Length shorter than recommended for a level 1 MOSFET.
Instance "u10:m15": Length shorter than recommended for a level 1 MOSFET.
Instance "u11:m1": Length shorter than recommended for a level 1 MOSFET.
Instance "u11:m2": Length shorter than recommended for a level 1 MOSFET.
Instance "u11:m16": Length shorter than recommended for a level 1 MOSFET.
Instance "u11:m3": Length shorter than recommended for a level 1 MOSFET.
Instance "u11:m4": Length shorter than recommended for a level 1 MOSFET.
Instance "u11:m15": Length shorter than recommended for a level 1 MOSFET.
Instance "u12:m1": Length shorter than recommended for a level 1 MOSFET.
Instance "u12:m2": Length shorter than recommended for a level 1 MOSFET.
Instance "u12:m16": Length shorter than recommended for a level 1 MOSFET.
Instance "u12:m3": Length shorter than recommended for a level 1 MOSFET.
Instance "u12:m4": Length shorter than recommended for a level 1 MOSFET.
Instance "u12:m15": Length shorter than recommended for a level 1 MOSFET.
Instance "u4:m1": Length shorter than recommended for a level 1 MOSFET.
Instance "u4:m2": Length shorter than recommended for a level 1 MOSFET.
Instance "u4:m16": Length shorter than recommended for a level 1 MOSFET.
Instance "u4:m3": Length shorter than recommended for a level 1 MOSFET.
Instance "u4:m4": Length shorter than recommended for a level 1 MOSFET.
Instance "u4:m15": Length shorter than recommended for a level 1 MOSFET.
Instance "u5:m1": Length shorter than recommended for a level 1 MOSFET.
Instance "u5:m2": Length shorter than recommended for a level 1 MOSFET.
Instance "u5:m16": Length shorter than recommended for a level 1 MOSFET.
Instance "u5:m3": Length shorter than recommended for a level 1 MOSFET.
Instance "u5:m4": Length shorter than recommended for a level 1 MOSFET.
Instance "u5:m15": Length shorter than recommended for a level 1 MOSFET.
Per .tran options, skipping operating point for transient analysis.
Total elapsed time: 28.538 seconds.

Files loaded:
C:\Users\botaa\Documents\Licenta\Licenta\SimulariLtspice\Standard IEC 60601-2-25\EkgTolerante.net
C:\Users\botaa\Documents\Licenta\Licenta\SimulariLtspice\Standard IEC 60601-2-25\ad8534.cir
C:\Users\botaa\AppData\Local\LTspice\lib\sub\ADP151-x.x.sub
C:\Users\botaa\AppData\Local\LTspice\lib\sub\MAX41400.sub

