LTspice 26.0.1 for Windows
Circuit: C:\Users\botaa\Documents\Licenta\Licenta\SimulariLtspice\Standard IEC 60601-2-25\StressTest.net
Start Time: Tue May  5 14:03:23 2026

.step run=1
solver = Normal
Maximum thread count: 12
tnom = 27
temp = 27
method = trap
Instance "u1:m1": Length shorter than recommended for a level 1 MOSFET.
Instance "u1:m2": Length shorter than recommended for a level 1 MOSFET.
Instance "u1:m16": Length shorter than recommended for a level 1 MOSFET.
Instance "u1:m3": Length shorter than recommended for a level 1 MOSFET.
Instance "u1:m4": Length shorter than recommended for a level 1 MOSFET.
Instance "u1:m15": Length shorter than recommended for a level 1 MOSFET.
Instance "u3:m1": Length shorter than recommended for a level 1 MOSFET.
Instance "u3:m2": Length shorter than recommended for a level 1 MOSFET.
Instance "u3:m16": Length shorter than recommended for a level 1 MOSFET.
Instance "u3:m3": Length shorter than recommended for a level 1 MOSFET.
Instance "u3:m4": Length shorter than recommended for a level 1 MOSFET.
Instance "u3:m15": Length shorter than recommended for a level 1 MOSFET.
Instance "u6:m1": Length shorter than recommended for a level 1 MOSFET.
Instance "u6:m2": Length shorter than recommended for a level 1 MOSFET.
Instance "u6:m16": Length shorter than recommended for a level 1 MOSFET.
Instance "u6:m3": Length shorter than recommended for a level 1 MOSFET.
Instance "u6:m4": Length shorter than recommended for a level 1 MOSFET.
Instance "u6:m15": Length shorter than recommended for a level 1 MOSFET.
Instance "u7:m1": Length shorter than recommended for a level 1 MOSFET.
Instance "u7:m2": Length shorter than recommended for a level 1 MOSFET.
Instance "u7:m16": Length shorter than recommended for a level 1 MOSFET.
Instance "u7:m3": Length shorter than recommended for a level 1 MOSFET.
Instance "u7:m4": Length shorter than recommended for a level 1 MOSFET.
Instance "u7:m15": Length shorter than recommended for a level 1 MOSFET.
Instance "u8:m1": Length shorter than recommended for a level 1 MOSFET.
Instance "u8:m2": Length shorter than recommended for a level 1 MOSFET.
Instance "u8:m16": Length shorter than recommended for a level 1 MOSFET.
Instance "u8:m3": Length shorter than recommended for a level 1 MOSFET.
Instance "u8:m4": Length shorter than recommended for a level 1 MOSFET.
Instance "u8:m15": Length shorter than recommended for a level 1 MOSFET.
Instance "u9:m1": Length shorter than recommended for a level 1 MOSFET.
Instance "u9:m2": Length shorter than recommended for a level 1 MOSFET.
Instance "u9:m16": Length shorter than recommended for a level 1 MOSFET.
Instance "u9:m3": Length shorter than recommended for a level 1 MOSFET.
Instance "u9:m4": Length shorter than recommended for a level 1 MOSFET.
Instance "u9:m15": Length shorter than recommended for a level 1 MOSFET.
Instance "u4:m1": Length shorter than recommended for a level 1 MOSFET.
Instance "u4:m2": Length shorter than recommended for a level 1 MOSFET.
Instance "u4:m16": Length shorter than recommended for a level 1 MOSFET.
Instance "u4:m3": Length shorter than recommended for a level 1 MOSFET.
Instance "u4:m4": Length shorter than recommended for a level 1 MOSFET.
Instance "u4:m15": Length shorter than recommended for a level 1 MOSFET.
Instance "u5:m1": Length shorter than recommended for a level 1 MOSFET.
Instance "u5:m2": Length shorter than recommended for a level 1 MOSFET.
Instance "u5:m16": Length shorter than recommended for a level 1 MOSFET.
Instance "u5:m3": Length shorter than recommended for a level 1 MOSFET.
Instance "u5:m4": Length shorter than recommended for a level 1 MOSFET.
Instance "u5:m15": Length shorter than recommended for a level 1 MOSFET.
Early termination of direct N-R iteration.
Direct Newton iteration failed to find operating point.
Starting Gmin stepping
Gmin stepping failed to find operating point. Use".option gminsteps=0" to skip all Gmin stepping.
Starting source stepping with srcstepmethod=0
Trouble finding operating point....skipping operating point for Transient analysis.

Simulation stopped by user.
Total elapsed time: 53.377 seconds.

Files loaded:
C:\Users\botaa\Documents\Licenta\Licenta\SimulariLtspice\Standard IEC 60601-2-25\StressTest.net
C:\Users\botaa\Documents\Licenta\Licenta\SimulariLtspice\Standard IEC 60601-2-25\ad8534.cir
C:\Users\botaa\Documents\Licenta\Licenta\SimulariLtspice\Standard IEC 60601-2-25\BZX84C3V3.spice.txt
C:\Users\botaa\AppData\Local\LTspice\lib\sub\ADP151-x.x.sub
C:\Users\botaa\AppData\Local\LTspice\lib\sub\MAX41400.sub

