LTspice 26.0.1 for Windows
Circuit: \\wsl.localhost\Ubuntu\home\andrei\Licenta\SimulariLtspice\Standard IEC 60601-2-25\30microNoise.net
Start Time: Sun Mar 15 12:44:43 2026
solver = Normal
Maximum thread count: 20
tnom = 27
temp = 27
method = trap
Instance "u6:m15": Length shorter than recommended for a level 1 MOSFET.
Instance "u1:m1": Length shorter than recommended for a level 1 MOSFET.
Instance "u1:m2": Length shorter than recommended for a level 1 MOSFET.
Instance "u1:m16": Length shorter than recommended for a level 1 MOSFET.
Instance "u1:m3": Length shorter than recommended for a level 1 MOSFET.
Instance "u1:m4": Length shorter than recommended for a level 1 MOSFET.
Instance "u1:m15": Length shorter than recommended for a level 1 MOSFET.
Instance "u6:m1": Length shorter than recommended for a level 1 MOSFET.
Instance "u6:m2": Length shorter than recommended for a level 1 MOSFET.
Instance "u6:m16": Length shorter than recommended for a level 1 MOSFET.
Instance "u6:m3": Length shorter than recommended for a level 1 MOSFET.
Instance "u6:m4": Length shorter than recommended for a level 1 MOSFET.
Instance "u3:m1": Length shorter than recommended for a level 1 MOSFET.
Instance "u3:m2": Length shorter than recommended for a level 1 MOSFET.
Instance "u3:m16": Length shorter than recommended for a level 1 MOSFET.
Instance "u3:m3": Length shorter than recommended for a level 1 MOSFET.
Instance "u3:m4": Length shorter than recommended for a level 1 MOSFET.
Instance "u3:m15": Length shorter than recommended for a level 1 MOSFET.
Instance "u7:m1": Length shorter than recommended for a level 1 MOSFET.
Instance "u7:m2": Length shorter than recommended for a level 1 MOSFET.
Instance "u7:m16": Length shorter than recommended for a level 1 MOSFET.
Instance "u7:m3": Length shorter than recommended for a level 1 MOSFET.
Instance "u7:m4": Length shorter than recommended for a level 1 MOSFET.
Instance "u7:m15": Length shorter than recommended for a level 1 MOSFET.
Instance "u15:m1": Length shorter than recommended for a level 1 MOSFET.
Instance "u15:m2": Length shorter than recommended for a level 1 MOSFET.
Instance "u15:m16": Length shorter than recommended for a level 1 MOSFET.
Instance "u15:m3": Length shorter than recommended for a level 1 MOSFET.
Instance "u15:m4": Length shorter than recommended for a level 1 MOSFET.
Instance "u15:m15": Length shorter than recommended for a level 1 MOSFET.
Per .tran options, skipping operating point for transient analysis.
Total elapsed time: 0.508 seconds.

Files loaded:
\\wsl.localhost\Ubuntu\home\andrei\Licenta\SimulariLtspice\Standard IEC 60601-2-25\30microNoise.net
\\wsl.localhost\Ubuntu\home\andrei\Licenta\SimulariLtspice\Standard IEC 60601-2-25\ad8534.cir
\\wsl.localhost\Ubuntu\home\andrei\Licenta\SimulariLtspice\Standard IEC 60601-2-25\BZX84C3V3.spice.txt
C:\Users\Andrei\AppData\Local\LTspice\lib\sub\ADP151-x.x.sub
C:\Users\Andrei\AppData\Local\LTspice\lib\sub\Contrib\Toshiba\DIODE\BAV99_enc.lib
C:\Users\Andrei\AppData\Local\LTspice\lib\sub\MAX41400.sub

