LTspice 26.0.2 for Windows
Circuit: C:\Users\botaa\Documents\Licenta\Licenta\SimulariLtspice\Standard IEC 60601-2-25\Draft2.net
Start Time: Fri Jul  3 11:34:17 2026
solver = Normal
Maximum thread count: 12
tnom = 27
temp = 27
method = trap
WARNING: Node u1:7 is floating.

Instance "u1:m1": Length shorter than recommended for a level 1 MOSFET.
Instance "u1:m2": Length shorter than recommended for a level 1 MOSFET.
Instance "u1:m16": Length shorter than recommended for a level 1 MOSFET.
Instance "u1:m3": Length shorter than recommended for a level 1 MOSFET.
Instance "u1:m4": Length shorter than recommended for a level 1 MOSFET.
Instance "u1:m15": Length shorter than recommended for a level 1 MOSFET.
Direct Newton iteration succeeded in finding operating point.
Total elapsed time: 0.048 seconds.

Files loaded:
C:\Users\botaa\Documents\Licenta\Licenta\SimulariLtspice\Standard IEC 60601-2-25\Draft2.net
C:\Users\botaa\Documents\Licenta\Licenta\SimulariLtspice\Standard IEC 60601-2-25\ad8534.cir
C:\Users\botaa\Documents\Licenta\Licenta\SimulariLtspice\Standard IEC 60601-2-25\BZX84C3V3.spice.txt

