LTspice 26.0.1 for Windows
Circuit: \\wsl.localhost\Ubuntu\home\andrei\Licenta\SimulariLtspice\Filtre\Draft1.net
Start Time: Sat Mar 14 14:19:14 2026
solver = Normal
Maximum thread count: 20
tnom = 27
temp = 27
method = trap
Instance "u5:m3": Length shorter than recommended for a level 1 MOSFET.
Instance "u5:m4": Length shorter than recommended for a level 1 MOSFET.
Instance "u1:m1": Length shorter than recommended for a level 1 MOSFET.
Instance "u1:m2": Length shorter than recommended for a level 1 MOSFET.
Instance "u1:m16": Length shorter than recommended for a level 1 MOSFET.
Instance "u1:m3": Length shorter than recommended for a level 1 MOSFET.
Instance "u1:m4": Length shorter than recommended for a level 1 MOSFET.
Instance "u1:m15": Length shorter than recommended for a level 1 MOSFET.
Instance "u5:m15": Length shorter than recommended for a level 1 MOSFET.
Instance "u6:m15": Length shorter than recommended for a level 1 MOSFET.
Instance "u6:m1": Length shorter than recommended for a level 1 MOSFET.
Instance "u6:m2": Length shorter than recommended for a level 1 MOSFET.
Instance "u3:m1": Length shorter than recommended for a level 1 MOSFET.
Instance "u3:m2": Length shorter than recommended for a level 1 MOSFET.
Instance "u3:m16": Length shorter than recommended for a level 1 MOSFET.
Instance "u3:m3": Length shorter than recommended for a level 1 MOSFET.
Instance "u3:m4": Length shorter than recommended for a level 1 MOSFET.
Instance "u3:m15": Length shorter than recommended for a level 1 MOSFET.
Instance "u6:m16": Length shorter than recommended for a level 1 MOSFET.
Instance "u4:m1": Length shorter than recommended for a level 1 MOSFET.
Instance "u4:m2": Length shorter than recommended for a level 1 MOSFET.
Instance "u4:m16": Length shorter than recommended for a level 1 MOSFET.
Instance "u4:m3": Length shorter than recommended for a level 1 MOSFET.
Instance "u4:m4": Length shorter than recommended for a level 1 MOSFET.
Instance "u4:m15": Length shorter than recommended for a level 1 MOSFET.
Instance "u6:m3": Length shorter than recommended for a level 1 MOSFET.
Instance "u6:m4": Length shorter than recommended for a level 1 MOSFET.
Instance "u5:m1": Length shorter than recommended for a level 1 MOSFET.
Instance "u5:m2": Length shorter than recommended for a level 1 MOSFET.
Instance "u5:m16": Length shorter than recommended for a level 1 MOSFET.
Instance "u7:m1": Length shorter than recommended for a level 1 MOSFET.
Instance "u7:m2": Length shorter than recommended for a level 1 MOSFET.
Instance "u7:m16": Length shorter than recommended for a level 1 MOSFET.
Instance "u7:m3": Length shorter than recommended for a level 1 MOSFET.
Instance "u7:m4": Length shorter than recommended for a level 1 MOSFET.
Instance "u7:m15": Length shorter than recommended for a level 1 MOSFET.
Instance "u8:m1": Length shorter than recommended for a level 1 MOSFET.
Instance "u8:m2": Length shorter than recommended for a level 1 MOSFET.
Instance "u8:m16": Length shorter than recommended for a level 1 MOSFET.
Instance "u8:m3": Length shorter than recommended for a level 1 MOSFET.
Instance "u8:m4": Length shorter than recommended for a level 1 MOSFET.
Instance "u8:m15": Length shorter than recommended for a level 1 MOSFET.
Instance "u9:m1": Length shorter than recommended for a level 1 MOSFET.
Instance "u9:m2": Length shorter than recommended for a level 1 MOSFET.
Instance "u9:m16": Length shorter than recommended for a level 1 MOSFET.
Instance "u9:m3": Length shorter than recommended for a level 1 MOSFET.
Instance "u9:m4": Length shorter than recommended for a level 1 MOSFET.
Instance "u9:m15": Length shorter than recommended for a level 1 MOSFET.
Instance "u15:m1": Length shorter than recommended for a level 1 MOSFET.
Instance "u15:m2": Length shorter than recommended for a level 1 MOSFET.
Instance "u15:m16": Length shorter than recommended for a level 1 MOSFET.
Instance "u15:m3": Length shorter than recommended for a level 1 MOSFET.
Instance "u15:m4": Length shorter than recommended for a level 1 MOSFET.
Instance "u15:m15": Length shorter than recommended for a level 1 MOSFET.
Early termination of direct N-R iteration.
Direct Newton iteration failed to find operating point.
Starting Gmin stepping
Gmin stepping failed to find operating point. Use".option gminsteps=0" to skip all Gmin stepping.
Starting source stepping with srcstepmethod=0

Simulation stopped by user.
Total elapsed time: 3021.203 seconds.

Files loaded:
\\wsl.localhost\Ubuntu\home\andrei\Licenta\SimulariLtspice\Filtre\Draft1.net
\\wsl.localhost\Ubuntu\home\andrei\Licenta\SimulariLtspice\Filtre\ad8534.cir
\\wsl.localhost\Ubuntu\home\andrei\Licenta\SimulariLtspice\Filtre\BZX84C3V3.spice.txt
C:\Users\Andrei\AppData\Local\LTspice\lib\sub\ADP151-x.x.sub
C:\Users\Andrei\AppData\Local\LTspice\lib\sub\Contrib\Toshiba\DIODE\BAV99_enc.lib
C:\Users\Andrei\AppData\Local\LTspice\lib\sub\MAX41400.sub

