LTspice 26.0.2 for Windows
Circuit: C:\Users\botaa\Documents\Licenta\SimulariLtspice\BlackBox\SistemAchizitieECG.net
Start Time: Tue Jul 14 14:42:53 2026
solver = Normal
Maximum thread count: 12
tnom = 27
temp = 27
method = trap
Instance "x6:u1:m3": Length shorter than recommended for a level 1 MOSFET.
Instance "x6:u1:m4": Length shorter than recommended for a level 1 MOSFET.
Instance "x6:u1:m15": Length shorter than recommended for a level 1 MOSFET.
Instance "x6:u2:m15": Length shorter than recommended for a level 1 MOSFET.
Instance "x6:u2:m1": Length shorter than recommended for a level 1 MOSFET.
Instance "x6:u2:m2": Length shorter than recommended for a level 1 MOSFET.
Instance "x4:u1:m1": Length shorter than recommended for a level 1 MOSFET.
Instance "x4:u1:m2": Length shorter than recommended for a level 1 MOSFET.
Instance "x4:u1:m16": Length shorter than recommended for a level 1 MOSFET.
Instance "x4:u1:m3": Length shorter than recommended for a level 1 MOSFET.
Instance "x4:u1:m4": Length shorter than recommended for a level 1 MOSFET.
Instance "x4:u1:m15": Length shorter than recommended for a level 1 MOSFET.
Instance "x6:u2:m16": Length shorter than recommended for a level 1 MOSFET.
Instance "x4:u2:m1": Length shorter than recommended for a level 1 MOSFET.
Instance "x4:u2:m2": Length shorter than recommended for a level 1 MOSFET.
Instance "x4:u2:m16": Length shorter than recommended for a level 1 MOSFET.
Instance "x4:u2:m3": Length shorter than recommended for a level 1 MOSFET.
Instance "x4:u2:m4": Length shorter than recommended for a level 1 MOSFET.
Instance "x4:u2:m15": Length shorter than recommended for a level 1 MOSFET.
Instance "x6:u2:m3": Length shorter than recommended for a level 1 MOSFET.
Instance "x6:u2:m4": Length shorter than recommended for a level 1 MOSFET.
Instance "x6:u1:m1": Length shorter than recommended for a level 1 MOSFET.
Instance "x6:u1:m2": Length shorter than recommended for a level 1 MOSFET.
Instance "x6:u1:m16": Length shorter than recommended for a level 1 MOSFET.
Instance "x2:u1:m1": Length shorter than recommended for a level 1 MOSFET.
Instance "x2:u1:m2": Length shorter than recommended for a level 1 MOSFET.
Instance "x2:u1:m16": Length shorter than recommended for a level 1 MOSFET.
Instance "x2:u1:m3": Length shorter than recommended for a level 1 MOSFET.
Instance "x2:u1:m4": Length shorter than recommended for a level 1 MOSFET.
Instance "x2:u1:m15": Length shorter than recommended for a level 1 MOSFET.
Instance "x7:u2:m1": Length shorter than recommended for a level 1 MOSFET.
Instance "x7:u2:m2": Length shorter than recommended for a level 1 MOSFET.
Instance "x7:u2:m16": Length shorter than recommended for a level 1 MOSFET.
Instance "x7:u2:m3": Length shorter than recommended for a level 1 MOSFET.
Instance "x7:u2:m4": Length shorter than recommended for a level 1 MOSFET.
Instance "x7:u2:m15": Length shorter than recommended for a level 1 MOSFET.
Instance "x8:u1:m1": Length shorter than recommended for a level 1 MOSFET.
Instance "x8:u1:m2": Length shorter than recommended for a level 1 MOSFET.
Instance "x8:u1:m16": Length shorter than recommended for a level 1 MOSFET.
Instance "x8:u1:m3": Length shorter than recommended for a level 1 MOSFET.
Instance "x8:u1:m4": Length shorter than recommended for a level 1 MOSFET.
Instance "x8:u1:m15": Length shorter than recommended for a level 1 MOSFET.
Instance "x8:u2:m1": Length shorter than recommended for a level 1 MOSFET.
Instance "x8:u2:m2": Length shorter than recommended for a level 1 MOSFET.
Instance "x8:u2:m16": Length shorter than recommended for a level 1 MOSFET.
Instance "x8:u2:m3": Length shorter than recommended for a level 1 MOSFET.
Instance "x8:u2:m4": Length shorter than recommended for a level 1 MOSFET.
Instance "x8:u2:m15": Length shorter than recommended for a level 1 MOSFET.
Direct Newton iteration failed to find operating point.
Starting Gmin stepping
Gmin stepping failed to find operating point. Use".option gminsteps=0" to skip all Gmin stepping.
Starting source stepping with srcstepmethod=0
Source stepping succeeded in finding the operating point.

Total elapsed time: 35.033 seconds.

Files loaded:
C:\Users\botaa\Documents\Licenta\SimulariLtspice\BlackBox\SistemAchizitieECG.net
C:\Users\botaa\Documents\Licenta\SimulariLtspice\BlackBox\ad8534.cir
C:\Users\botaa\Documents\Licenta\SimulariLtspice\BlackBox\BZX84C3V6.spice.txt
C:\Users\botaa\AppData\Local\LTspice\lib\sub\ADP151-x.x.sub
C:\Users\botaa\AppData\Local\LTspice\lib\sub\MAX41400.sub

