LTspice 24.0.12 for Windows
Circuit: * C:\Users\botaa\Documents\Licenta\Licenta\SimulariLtspice\BlackBox\SistemAchizitieECG.asc
Start Time: Tue May 19 16:13:10 2026
Error on line 102 : d:x5:5 x5:n001 0«:0» smbj90ca
	 Unable to find definition of model "smbj90ca"
Error on line 103 : d:x5:6 x5:n002 0«:0» smbj90ca
	 Unable to find definition of model "smbj90ca"
solver = Normal
Maximum thread count: 12
tnom = 27
temp = 27
method = trap
Fatal Error: Missing time points in PWL source X3:v1
