LTspice 26.0.1 for Windows
Circuit: \\wsl.localhost\Ubuntu\home\andrei\Licenta\SimulariLtspice\BlackBox\SistemAchizitieECG.net
Start Time: Sun May 10 10:47:04 2026
solver = Normal
Maximum thread count: 20
tnom = 27
temp = 27
method = trap
Instance "x4:u2:m15": Length shorter than recommended for a level 1 MOSFET.
Instance "x6:u1:m15": Length shorter than recommended for a level 1 MOSFET.
Instance "x6:u1:m1": Length shorter than recommended for a level 1 MOSFET.
Instance "x6:u1:m2": Length shorter than recommended for a level 1 MOSFET.
Instance "x6:u1:m16": Length shorter than recommended for a level 1 MOSFET.
Instance "x4:u1:m1": Length shorter than recommended for a level 1 MOSFET.
Instance "x4:u1:m2": Length shorter than recommended for a level 1 MOSFET.
Instance "x4:u1:m16": Length shorter than recommended for a level 1 MOSFET.
Instance "x4:u1:m3": Length shorter than recommended for a level 1 MOSFET.
Instance "x4:u1:m4": Length shorter than recommended for a level 1 MOSFET.
Instance "x4:u1:m15": Length shorter than recommended for a level 1 MOSFET.
Instance "x6:u1:m3": Length shorter than recommended for a level 1 MOSFET.
Instance "x6:u1:m4": Length shorter than recommended for a level 1 MOSFET.
Instance "x4:u2:m1": Length shorter than recommended for a level 1 MOSFET.
Instance "x4:u2:m2": Length shorter than recommended for a level 1 MOSFET.
Instance "x4:u2:m16": Length shorter than recommended for a level 1 MOSFET.
Instance "x4:u2:m3": Length shorter than recommended for a level 1 MOSFET.
Instance "x4:u2:m4": Length shorter than recommended for a level 1 MOSFET.
Instance "x6:u2:m1": Length shorter than recommended for a level 1 MOSFET.
Instance "x6:u2:m2": Length shorter than recommended for a level 1 MOSFET.
Instance "x6:u2:m16": Length shorter than recommended for a level 1 MOSFET.
Instance "x6:u2:m3": Length shorter than recommended for a level 1 MOSFET.
Instance "x6:u2:m4": Length shorter than recommended for a level 1 MOSFET.
Instance "x6:u2:m15": Length shorter than recommended for a level 1 MOSFET.
Instance "x2:u1:m1": Length shorter than recommended for a level 1 MOSFET.
Instance "x2:u1:m2": Length shorter than recommended for a level 1 MOSFET.
Instance "x2:u1:m16": Length shorter than recommended for a level 1 MOSFET.
Instance "x2:u1:m3": Length shorter than recommended for a level 1 MOSFET.
Instance "x2:u1:m4": Length shorter than recommended for a level 1 MOSFET.
Instance "x2:u1:m15": Length shorter than recommended for a level 1 MOSFET.
Instance "x7:u2:m1": Length shorter than recommended for a level 1 MOSFET.
Instance "x7:u2:m2": Length shorter than recommended for a level 1 MOSFET.
Instance "x7:u2:m16": Length shorter than recommended for a level 1 MOSFET.
Instance "x7:u2:m3": Length shorter than recommended for a level 1 MOSFET.
Instance "x7:u2:m4": Length shorter than recommended for a level 1 MOSFET.
Instance "x7:u2:m15": Length shorter than recommended for a level 1 MOSFET.
Instance "x8:u1:m1": Length shorter than recommended for a level 1 MOSFET.
Instance "x8:u1:m2": Length shorter than recommended for a level 1 MOSFET.
Instance "x8:u1:m16": Length shorter than recommended for a level 1 MOSFET.
Instance "x8:u1:m3": Length shorter than recommended for a level 1 MOSFET.
Instance "x8:u1:m4": Length shorter than recommended for a level 1 MOSFET.
Instance "x8:u1:m15": Length shorter than recommended for a level 1 MOSFET.
Instance "x8:u2:m1": Length shorter than recommended for a level 1 MOSFET.
Instance "x8:u2:m2": Length shorter than recommended for a level 1 MOSFET.
Instance "x8:u2:m16": Length shorter than recommended for a level 1 MOSFET.
Instance "x8:u2:m3": Length shorter than recommended for a level 1 MOSFET.
Instance "x8:u2:m4": Length shorter than recommended for a level 1 MOSFET.
Instance "x8:u2:m15": Length shorter than recommended for a level 1 MOSFET.
Per .tran options, skipping operating point for transient analysis.
Total elapsed time: 34.565 seconds.

Files loaded:
\\wsl.localhost\Ubuntu\home\andrei\Licenta\SimulariLtspice\BlackBox\SistemAchizitieECG.net
\\wsl.localhost\Ubuntu\home\andrei\Licenta\SimulariLtspice\BlackBox\ad8534.cir
\\wsl.localhost\Ubuntu\home\andrei\Licenta\SimulariLtspice\BlackBox\BZX84C3V3.spice.txt
C:\Users\Andrei\AppData\Local\LTspice\lib\sub\ADP151-x.x.sub
C:\Users\Andrei\AppData\Local\LTspice\lib\sub\MAX41400.sub

