LTspice 26.0.2 for Windows
Circuit: C:\Users\botaa\Documents\Licenta\Licenta\SimulariLtspice\Tolerante\Tolerante FTJ.net
Start Time: Wed Jul  1 12:55:57 2026

.step run=1
solver = Normal
Maximum thread count: 12
tnom = 27
temp = 27
method = trap
Instance "u1:m1": Length shorter than recommended for a level 1 MOSFET.
Instance "u1:m2": Length shorter than recommended for a level 1 MOSFET.
Instance "u1:m16": Length shorter than recommended for a level 1 MOSFET.
Instance "u1:m3": Length shorter than recommended for a level 1 MOSFET.
Instance "u1:m4": Length shorter than recommended for a level 1 MOSFET.
Instance "u1:m15": Length shorter than recommended for a level 1 MOSFET.
Instance "u2:m1": Length shorter than recommended for a level 1 MOSFET.
Instance "u2:m2": Length shorter than recommended for a level 1 MOSFET.
Instance "u2:m16": Length shorter than recommended for a level 1 MOSFET.
Instance "u2:m3": Length shorter than recommended for a level 1 MOSFET.
Instance "u2:m4": Length shorter than recommended for a level 1 MOSFET.
Instance "u2:m15": Length shorter than recommended for a level 1 MOSFET.
Direct Newton iteration failed to find operating point.
Starting Gmin stepping
Gmin stepping succeeded in finding the operating point.


.step run=2
Direct Newton iteration failed to find operating point.
Starting Gmin stepping
Gmin stepping succeeded in finding the operating point.


.step run=3
Direct Newton iteration failed to find operating point.
Starting Gmin stepping
Gmin stepping succeeded in finding the operating point.


.step run=4
Direct Newton iteration failed to find operating point.
Starting Gmin stepping
Gmin stepping succeeded in finding the operating point.


.step run=5
Direct Newton iteration failed to find operating point.
Starting Gmin stepping
Gmin stepping succeeded in finding the operating point.


.step run=6
Direct Newton iteration failed to find operating point.
Starting Gmin stepping
Gmin stepping succeeded in finding the operating point.


.step run=7
Direct Newton iteration failed to find operating point.
Starting Gmin stepping
Gmin stepping failed to find operating point. Use".option gminsteps=0" to skip all Gmin stepping.
Starting source stepping with srcstepmethod=0
Source stepping succeeded in finding the operating point.


.step run=8
Direct Newton iteration failed to find operating point.
Starting Gmin stepping
Gmin stepping succeeded in finding the operating point.


.step run=9
Direct Newton iteration failed to find operating point.
Starting Gmin stepping
Gmin stepping succeeded in finding the operating point.


.step run=10
Direct Newton iteration failed to find operating point.
Starting Gmin stepping
Gmin stepping failed to find operating point. Use".option gminsteps=0" to skip all Gmin stepping.
Starting source stepping with srcstepmethod=0
Source stepping succeeded in finding the operating point.


.step run=11
Direct Newton iteration failed to find operating point.
Starting Gmin stepping
Gmin stepping failed to find operating point. Use".option gminsteps=0" to skip all Gmin stepping.
Starting source stepping with srcstepmethod=0
Source stepping succeeded in finding the operating point.


.step run=12
Direct Newton iteration failed to find operating point.
Starting Gmin stepping
Gmin stepping succeeded in finding the operating point.


.step run=13
Direct Newton iteration failed to find operating point.
Starting Gmin stepping
Gmin stepping failed to find operating point. Use".option gminsteps=0" to skip all Gmin stepping.
Starting source stepping with srcstepmethod=0
Source stepping succeeded in finding the operating point.


.step run=14
Direct Newton iteration failed to find operating point.
Starting Gmin stepping
Gmin stepping succeeded in finding the operating point.


.step run=15
Direct Newton iteration failed to find operating point.
Starting Gmin stepping
Gmin stepping succeeded in finding the operating point.


.step run=16
Direct Newton iteration failed to find operating point.
Starting Gmin stepping
Gmin stepping succeeded in finding the operating point.


.step run=17
Direct Newton iteration failed to find operating point.
Starting Gmin stepping
Gmin stepping succeeded in finding the operating point.


.step run=18
Direct Newton iteration failed to find operating point.
Starting Gmin stepping
Gmin stepping failed to find operating point. Use".option gminsteps=0" to skip all Gmin stepping.
Starting source stepping with srcstepmethod=0
Source stepping succeeded in finding the operating point.


.step run=19
Direct Newton iteration failed to find operating point.
Starting Gmin stepping
Gmin stepping succeeded in finding the operating point.


.step run=20
Direct Newton iteration failed to find operating point.
Starting Gmin stepping
Gmin stepping succeeded in finding the operating point.


.step run=21
Direct Newton iteration failed to find operating point.
Starting Gmin stepping
Gmin stepping succeeded in finding the operating point.


.step run=22
Direct Newton iteration failed to find operating point.
Starting Gmin stepping
Gmin stepping failed to find operating point. Use".option gminsteps=0" to skip all Gmin stepping.
Starting source stepping with srcstepmethod=0
Source stepping succeeded in finding the operating point.


.step run=23
Direct Newton iteration failed to find operating point.
Starting Gmin stepping
Gmin stepping failed to find operating point. Use".option gminsteps=0" to skip all Gmin stepping.
Starting source stepping with srcstepmethod=0
Source stepping succeeded in finding the operating point.


.step run=24
Direct Newton iteration failed to find operating point.
Starting Gmin stepping
Gmin stepping succeeded in finding the operating point.


.step run=25
Direct Newton iteration failed to find operating point.
Starting Gmin stepping
Gmin stepping failed to find operating point. Use".option gminsteps=0" to skip all Gmin stepping.
Starting source stepping with srcstepmethod=0
Source stepping succeeded in finding the operating point.


.step run=26
Direct Newton iteration failed to find operating point.
Starting Gmin stepping
Gmin stepping failed to find operating point. Use".option gminsteps=0" to skip all Gmin stepping.
Starting source stepping with srcstepmethod=0
Source stepping succeeded in finding the operating point.


.step run=27
Direct Newton iteration failed to find operating point.
Starting Gmin stepping
Gmin stepping succeeded in finding the operating point.


.step run=28
Direct Newton iteration failed to find operating point.
Starting Gmin stepping
Gmin stepping succeeded in finding the operating point.


.step run=29
Direct Newton iteration failed to find operating point.
Starting Gmin stepping
Gmin stepping succeeded in finding the operating point.


.step run=30
Direct Newton iteration failed to find operating point.
Starting Gmin stepping
Gmin stepping succeeded in finding the operating point.


.step run=31
Direct Newton iteration failed to find operating point.
Starting Gmin stepping
Gmin stepping failed to find operating point. Use".option gminsteps=0" to skip all Gmin stepping.
Starting source stepping with srcstepmethod=0
Source stepping succeeded in finding the operating point.


.step run=32
Direct Newton iteration failed to find operating point.
Starting Gmin stepping
Gmin stepping succeeded in finding the operating point.


.step run=33
Direct Newton iteration failed to find operating point.
Starting Gmin stepping
Gmin stepping succeeded in finding the operating point.


.step run=34
Direct Newton iteration failed to find operating point.
Starting Gmin stepping
Gmin stepping failed to find operating point. Use".option gminsteps=0" to skip all Gmin stepping.
Starting source stepping with srcstepmethod=0
Source stepping succeeded in finding the operating point.


.step run=35
Direct Newton iteration failed to find operating point.
Starting Gmin stepping
Gmin stepping succeeded in finding the operating point.


.step run=36
Direct Newton iteration failed to find operating point.
Starting Gmin stepping
Gmin stepping succeeded in finding the operating point.


.step run=37
Direct Newton iteration failed to find operating point.
Starting Gmin stepping
Gmin stepping failed to find operating point. Use".option gminsteps=0" to skip all Gmin stepping.
Starting source stepping with srcstepmethod=0
Source stepping succeeded in finding the operating point.


.step run=38
Direct Newton iteration failed to find operating point.
Starting Gmin stepping
Gmin stepping failed to find operating point. Use".option gminsteps=0" to skip all Gmin stepping.
Starting source stepping with srcstepmethod=0
Source stepping succeeded in finding the operating point.


.step run=39
Direct Newton iteration failed to find operating point.
Starting Gmin stepping
Gmin stepping succeeded in finding the operating point.


.step run=40
Direct Newton iteration failed to find operating point.
Starting Gmin stepping
Gmin stepping succeeded in finding the operating point.


.step run=41
Direct Newton iteration failed to find operating point.
Starting Gmin stepping
Gmin stepping succeeded in finding the operating point.


.step run=42
Direct Newton iteration failed to find operating point.
Starting Gmin stepping
Gmin stepping succeeded in finding the operating point.


.step run=43
Direct Newton iteration failed to find operating point.
Starting Gmin stepping
Gmin stepping succeeded in finding the operating point.


.step run=44
Direct Newton iteration failed to find operating point.
Starting Gmin stepping
Gmin stepping succeeded in finding the operating point.


.step run=45
Direct Newton iteration failed to find operating point.
Starting Gmin stepping
Gmin stepping succeeded in finding the operating point.


.step run=46
Direct Newton iteration failed to find operating point.
Starting Gmin stepping
Gmin stepping succeeded in finding the operating point.


.step run=47
Direct Newton iteration failed to find operating point.
Starting Gmin stepping
Gmin stepping succeeded in finding the operating point.


.step run=48
Direct Newton iteration failed to find operating point.
Starting Gmin stepping
Gmin stepping succeeded in finding the operating point.


.step run=49
Direct Newton iteration failed to find operating point.
Starting Gmin stepping
Gmin stepping failed to find operating point. Use".option gminsteps=0" to skip all Gmin stepping.
Starting source stepping with srcstepmethod=0
Source stepping succeeded in finding the operating point.


.step run=50
Direct Newton iteration failed to find operating point.
Starting Gmin stepping
Gmin stepping succeeded in finding the operating point.

Total elapsed time: 26.580 seconds.

Files loaded:
C:\Users\botaa\Documents\Licenta\Licenta\SimulariLtspice\Tolerante\Tolerante FTJ.net
C:\Users\botaa\Documents\Licenta\Licenta\SimulariLtspice\Tolerante\ad8534.cir
C:\Users\botaa\Documents\Licenta\Licenta\SimulariLtspice\Tolerante\BZX84C3V3.spice.txt


Measurement: gain_pass
  step	mag(V(vekg)) 	at
     1	(14.0636409707dB,0°)	0.1
     2	(14.0636394222dB,0°)	0.1
     3	(13.9929113662dB,0°)	0.1
     4	(14.1165206531dB,0°)	0.1
     5	(14.1165218386dB,0°)	0.1
     6	(14.0636421377dB,0°)	0.1
     7	(14.116522425dB,0°)	0.1
     8	(13.9400308637dB,0°)	0.1
     9	(14.1701414318dB,0°)	0.1
    10	(13.9929122481dB,0°)	0.1
    11	(14.063641471dB,0°)	0.1
    12	(14.0636395507dB,0°)	0.1
    13	(14.11652173dB,0°)	0.1
    14	(14.0465326864dB,0°)	0.1
    15	(14.1165218461dB,0°)	0.1
    16	(14.1165207453dB,0°)	0.1
    17	(14.063640242dB,0°)	0.1
    18	(14.0465308722dB,0°)	0.1
    19	(13.9400321797dB,0°)	0.1
    20	(14.0465307836dB,0°)	0.1
    21	(13.9929120833dB,0°)	0.1
    22	(14.1879583074dB,0°)	0.1
    23	(14.170140052dB,0°)	0.1
    24	(14.1879586dB,0°)	0.1
    25	(14.2408403866dB,0°)	0.1
    26	(14.1701394606dB,0°)	0.1
    27	(14.1879569126dB,0°)	0.1
    28	(14.0636387324dB,0°)	0.1
    29	(14.1701391663dB,0°)	0.1
    30	(14.1701409322dB,0°)	0.1
    31	(14.063639763dB,0°)	0.1
    32	(14.1165208872dB,0°)	0.1
    33	(14.1701412989dB,0°)	0.1
    34	(13.9400317988dB,0°)	0.1
    35	(14.1165207573dB,0°)	0.1
    36	(14.0465325915dB,0°)	0.1
    37	(14.1879583dB,0°)	0.1
    38	(14.116521334dB,0°)	0.1
    39	(13.992912545dB,0°)	0.1
    40	(14.1165218875dB,0°)	0.1
    41	(14.1165223937dB,0°)	0.1
    42	(13.9929116045dB,0°)	0.1
    43	(13.9929131773dB,0°)	0.1
    44	(13.9929133379dB,0°)	0.1
    45	(14.1165206404dB,0°)	0.1
    46	(13.9400315968dB,0°)	0.1
    47	(14.2408402457dB,0°)	0.1
    48	(14.1701407363dB,0°)	0.1
    49	(14.2408392179dB,0°)	0.1
    50	(14.1165196678dB,0°)	0.1

Measurement: target_3db
  step	gain_pass/1.414
     1	(11.0546527815dB,0°)
     2	(11.0546512329dB,0°)
     3	(10.983923177dB,0°)
     4	(11.1075324639dB,0°)
     5	(11.1075336494dB,0°)
     6	(11.0546539485dB,0°)
     7	(11.1075342357dB,0°)
     8	(10.9310426744dB,0°)
     9	(11.1611532426dB,0°)
    10	(10.9839240588dB,0°)
    11	(11.0546532818dB,0°)
    12	(11.0546513615dB,0°)
    13	(11.1075335407dB,0°)
    14	(11.0375444971dB,0°)
    15	(11.1075336569dB,0°)
    16	(11.1075325561dB,0°)
    17	(11.0546520528dB,0°)
    18	(11.037542683dB,0°)
    19	(10.9310439904dB,0°)
    20	(11.0375425944dB,0°)
    21	(10.983923894dB,0°)
    22	(11.1789701182dB,0°)
    23	(11.1611518628dB,0°)
    24	(11.1789704107dB,0°)
    25	(11.2318521974dB,0°)
    26	(11.1611512714dB,0°)
    27	(11.1789687234dB,0°)
    28	(11.0546505432dB,0°)
    29	(11.1611509771dB,0°)
    30	(11.161152743dB,0°)
    31	(11.0546515738dB,0°)
    32	(11.107532698dB,0°)
    33	(11.1611531096dB,0°)
    34	(10.9310436095dB,0°)
    35	(11.1075325681dB,0°)
    36	(11.0375444023dB,0°)
    37	(11.1789701107dB,0°)
    38	(11.1075331448dB,0°)
    39	(10.9839243558dB,0°)
    40	(11.1075336983dB,0°)
    41	(11.1075342045dB,0°)
    42	(10.9839234153dB,0°)
    43	(10.9839249881dB,0°)
    44	(10.9839251486dB,0°)
    45	(11.1075324512dB,0°)
    46	(10.9310434076dB,0°)
    47	(11.2318520565dB,0°)
    48	(11.1611525471dB,0°)
    49	(11.2318510287dB,0°)
    50	(11.1075314786dB,0°)

Measurement: f_cutoff
  step	mag(V(vekg))=target_3dB
     1	148.814161476
     2	141.350198383
     3	134.774300682
     4	141.282550294
     5	149.646153904
     6	160.253642839
     7	147.301884907
     8	126.097688645
     9	162.101661359
    10	131.326079599
    11	145.990890379
    12	135.269974364
    13	156.402752738
    14	155.869242339
    15	161.187761771
    16	140.597612713
    17	151.689836197
    18	138.688917153
    19	147.999689742
    20	137.137755183
    21	146.669215038
    22	147.246020021
    23	153.929857814
    24	141.680089315
    25	159.033197059
    26	134.922175557
    27	135.325718967
    28	129.771571599
    29	124.738422168
    30	152.275373303
    31	151.507394607
    32	139.117094477
    33	155.242129046
    34	143.578520762
    35	134.822587763
    36	152.716599901
    37	145.064814252
    38	156.896101106
    39	134.645631176
    40	149.535924756
    41	159.215259721
    42	140.433805872
    43	138.907872059
    44	152.099637833
    45	137.101010896
    46	132.666016888
    47	157.761022384
    48	139.786892583
    49	146.059443736
    50	132.647792481
