LTspice 26.0.2 for Windows
Circuit: C:\Users\botaa\Documents\Licenta\Licenta\SimulariLtspice\Tolerante\Toleranta FTS.net
Start Time: Wed Jul  1 12:34:30 2026

.step run=1
solver = Normal
Maximum thread count: 12
tnom = 27
temp = 27
method = trap
Instance "u1:m1": Length shorter than recommended for a level 1 MOSFET.
Instance "u1:m2": Length shorter than recommended for a level 1 MOSFET.
Instance "u1:m16": Length shorter than recommended for a level 1 MOSFET.
Instance "u1:m3": Length shorter than recommended for a level 1 MOSFET.
Instance "u1:m4": Length shorter than recommended for a level 1 MOSFET.
Instance "u1:m15": Length shorter than recommended for a level 1 MOSFET.
Instance "u2:m1": Length shorter than recommended for a level 1 MOSFET.
Instance "u2:m2": Length shorter than recommended for a level 1 MOSFET.
Instance "u2:m16": Length shorter than recommended for a level 1 MOSFET.
Instance "u2:m3": Length shorter than recommended for a level 1 MOSFET.
Instance "u2:m4": Length shorter than recommended for a level 1 MOSFET.
Instance "u2:m15": Length shorter than recommended for a level 1 MOSFET.
Direct Newton iteration failed to find operating point.
Starting Gmin stepping
Gmin stepping succeeded in finding the operating point.


.step run=2
Direct Newton iteration failed to find operating point.
Starting Gmin stepping
Gmin stepping succeeded in finding the operating point.


.step run=3
Direct Newton iteration failed to find operating point.
Starting Gmin stepping
Gmin stepping succeeded in finding the operating point.


.step run=4
Direct Newton iteration failed to find operating point.
Starting Gmin stepping
Gmin stepping succeeded in finding the operating point.


.step run=5
Direct Newton iteration failed to find operating point.
Starting Gmin stepping
Gmin stepping succeeded in finding the operating point.


.step run=6
Direct Newton iteration failed to find operating point.
Starting Gmin stepping
Gmin stepping succeeded in finding the operating point.


.step run=7
Direct Newton iteration failed to find operating point.
Starting Gmin stepping
Gmin stepping succeeded in finding the operating point.


.step run=8
Direct Newton iteration failed to find operating point.
Starting Gmin stepping
Gmin stepping succeeded in finding the operating point.


.step run=9
Direct Newton iteration failed to find operating point.
Starting Gmin stepping
Gmin stepping succeeded in finding the operating point.


.step run=10
Direct Newton iteration failed to find operating point.
Starting Gmin stepping
Gmin stepping succeeded in finding the operating point.


.step run=11
Direct Newton iteration failed to find operating point.
Starting Gmin stepping
Gmin stepping succeeded in finding the operating point.


.step run=12
Direct Newton iteration failed to find operating point.
Starting Gmin stepping
Gmin stepping succeeded in finding the operating point.


.step run=13
Direct Newton iteration failed to find operating point.
Starting Gmin stepping
Gmin stepping succeeded in finding the operating point.


.step run=14
Direct Newton iteration failed to find operating point.
Starting Gmin stepping
Gmin stepping succeeded in finding the operating point.


.step run=15
Direct Newton iteration failed to find operating point.
Starting Gmin stepping
Gmin stepping succeeded in finding the operating point.


.step run=16
Direct Newton iteration failed to find operating point.
Starting Gmin stepping
Gmin stepping succeeded in finding the operating point.


.step run=17
Direct Newton iteration failed to find operating point.
Starting Gmin stepping
Gmin stepping succeeded in finding the operating point.


.step run=18
Direct Newton iteration failed to find operating point.
Starting Gmin stepping
Gmin stepping succeeded in finding the operating point.


.step run=19
Direct Newton iteration failed to find operating point.
Starting Gmin stepping
Gmin stepping succeeded in finding the operating point.


.step run=20
Direct Newton iteration failed to find operating point.
Starting Gmin stepping
Gmin stepping succeeded in finding the operating point.


.step run=21
Direct Newton iteration failed to find operating point.
Starting Gmin stepping
Gmin stepping succeeded in finding the operating point.


.step run=22
Direct Newton iteration failed to find operating point.
Starting Gmin stepping
Gmin stepping succeeded in finding the operating point.


.step run=23
Direct Newton iteration failed to find operating point.
Starting Gmin stepping
Gmin stepping succeeded in finding the operating point.


.step run=24
Direct Newton iteration failed to find operating point.
Starting Gmin stepping
Gmin stepping succeeded in finding the operating point.


.step run=25
Direct Newton iteration failed to find operating point.
Starting Gmin stepping
Gmin stepping succeeded in finding the operating point.


.step run=26
Direct Newton iteration failed to find operating point.
Starting Gmin stepping
Gmin stepping succeeded in finding the operating point.


.step run=27
Direct Newton iteration failed to find operating point.
Starting Gmin stepping
Gmin stepping succeeded in finding the operating point.


.step run=28
Direct Newton iteration failed to find operating point.
Starting Gmin stepping
Gmin stepping succeeded in finding the operating point.


.step run=29
Direct Newton iteration failed to find operating point.
Starting Gmin stepping
Gmin stepping succeeded in finding the operating point.


.step run=30
Direct Newton iteration failed to find operating point.
Starting Gmin stepping
Gmin stepping succeeded in finding the operating point.


.step run=31
Direct Newton iteration failed to find operating point.
Starting Gmin stepping
Gmin stepping succeeded in finding the operating point.


.step run=32
Direct Newton iteration failed to find operating point.
Starting Gmin stepping
Gmin stepping succeeded in finding the operating point.


.step run=33
Direct Newton iteration failed to find operating point.
Starting Gmin stepping
Gmin stepping succeeded in finding the operating point.


.step run=34
Direct Newton iteration failed to find operating point.
Starting Gmin stepping
Gmin stepping succeeded in finding the operating point.


.step run=35
Direct Newton iteration failed to find operating point.
Starting Gmin stepping
Gmin stepping succeeded in finding the operating point.


.step run=36
Direct Newton iteration failed to find operating point.
Starting Gmin stepping
Gmin stepping succeeded in finding the operating point.


.step run=37
Direct Newton iteration failed to find operating point.
Starting Gmin stepping
Gmin stepping succeeded in finding the operating point.


.step run=38
Direct Newton iteration failed to find operating point.
Starting Gmin stepping
Gmin stepping succeeded in finding the operating point.


.step run=39
Direct Newton iteration failed to find operating point.
Starting Gmin stepping
Gmin stepping succeeded in finding the operating point.


.step run=40
Direct Newton iteration failed to find operating point.
Starting Gmin stepping
Gmin stepping succeeded in finding the operating point.


.step run=41
Direct Newton iteration failed to find operating point.
Starting Gmin stepping
Gmin stepping succeeded in finding the operating point.


.step run=42
Direct Newton iteration failed to find operating point.
Starting Gmin stepping
Gmin stepping succeeded in finding the operating point.


.step run=43
Direct Newton iteration failed to find operating point.
Starting Gmin stepping
Gmin stepping succeeded in finding the operating point.


.step run=44
Direct Newton iteration failed to find operating point.
Starting Gmin stepping
Gmin stepping succeeded in finding the operating point.


.step run=45
Direct Newton iteration failed to find operating point.
Starting Gmin stepping
Gmin stepping succeeded in finding the operating point.


.step run=46
Direct Newton iteration failed to find operating point.
Starting Gmin stepping
Gmin stepping succeeded in finding the operating point.


.step run=47
Direct Newton iteration failed to find operating point.
Starting Gmin stepping
Gmin stepping succeeded in finding the operating point.


.step run=48
Direct Newton iteration failed to find operating point.
Starting Gmin stepping
Gmin stepping succeeded in finding the operating point.


.step run=49
Direct Newton iteration failed to find operating point.
Starting Gmin stepping
Gmin stepping succeeded in finding the operating point.


.step run=50
Direct Newton iteration failed to find operating point.
Starting Gmin stepping
Gmin stepping succeeded in finding the operating point.

Total elapsed time: 29.003 seconds.

Files loaded:
C:\Users\botaa\Documents\Licenta\Licenta\SimulariLtspice\Tolerante\Toleranta FTS.net
C:\Users\botaa\Documents\Licenta\Licenta\SimulariLtspice\Tolerante\ad8534.cir
C:\Users\botaa\Documents\Licenta\Licenta\SimulariLtspice\Tolerante\BZX84C3V3.spice.txt


Measurement: gain_pass_fts
  step	mag(V(vfts)) 	at
     1	(20.3205451501dB,0°)	10
     2	(20.0075033351dB,0°)	10
     3	(20.1639110188dB,0°)	10
     4	(20.1638878234dB,0°)	10
     5	(20.0075226178dB,0°)	10
     6	(20.1638922308dB,0°)	10
     7	(20.1639165164dB,0°)	10
     8	(20.0075221442dB,0°)	10
     9	(20.163874428dB,0°)	10
    10	(20.0075226178dB,0°)	10
    11	(20.1639209238dB,0°)	10
    12	(20.163874428dB,0°)	10
    13	(20.3205645197dB,0°)	10
    14	(20.1638827633dB,0°)	10
    15	(20.3205695805dB,0°)	10
    16	(20.1638854739dB,0°)	10
    17	(20.0075070397dB,0°)	10
    18	(20.0075270253dB,0°)	10
    19	(20.0075177368dB,0°)	10
    20	(20.0075226178dB,0°)	10
    21	(20.3205960902dB,0°)	10
    22	(20.1638641332dB,0°)	10
    23	(20.0075025961dB,0°)	10
    24	(20.1639165164dB,0°)	10
    25	(20.0075269466dB,0°)	10
    26	(20.3205960902dB,0°)	10
    27	(20.16389397dB,0°)	10
    28	(20.3205860358dB,0°)	10
    29	(20.1638829423dB,0°)	10
    30	(20.3205691364dB,0°)	10
    31	(20.1638922308dB,0°)	10
    32	(20.1638896502dB,0°)	10
    33	(20.1638875277dB,0°)	10
    34	(20.3205601123dB,0°)	10
    35	(20.1638922308dB,0°)	10
    36	(20.3205860358dB,0°)	10
    37	(20.3205916827dB,0°)	10
    38	(20.320549595dB,0°)	10
    39	(20.1638878234dB,0°)	10
    40	(20.0075491656dB,0°)	10
    41	(20.320564729dB,0°)	10
    42	(20.1638943342dB,0°)	10
    43	(20.0075175584dB,0°)	10
    44	(20.1638684289dB,0°)	10
    45	(20.3205904432dB,0°)	10
    46	(20.163885303dB,0°)	10
    47	(20.3205861859dB,0°)	10
    48	(20.1638871707dB,0°)	10
    49	(20.0075177368dB,0°)	10
    50	(20.1638662042dB,0°)	10

Measurement: target_3db_fts
  step	gain_pass_fts/1.414
     1	(17.3115569609dB,0°)
     2	(16.9985151459dB,0°)
     3	(17.1549228296dB,0°)
     4	(17.1548996341dB,0°)
     5	(16.9985344286dB,0°)
     6	(17.1549040416dB,0°)
     7	(17.1549283271dB,0°)
     8	(16.998533955dB,0°)
     9	(17.1548862387dB,0°)
    10	(16.9985344286dB,0°)
    11	(17.1549327346dB,0°)
    12	(17.1548862387dB,0°)
    13	(17.3115763305dB,0°)
    14	(17.154894574dB,0°)
    15	(17.3115813913dB,0°)
    16	(17.1548972847dB,0°)
    17	(16.9985188505dB,0°)
    18	(16.998538836dB,0°)
    19	(16.9985295476dB,0°)
    20	(16.9985344286dB,0°)
    21	(17.311607901dB,0°)
    22	(17.154875944dB,0°)
    23	(16.9985144069dB,0°)
    24	(17.1549283271dB,0°)
    25	(16.9985387574dB,0°)
    26	(17.311607901dB,0°)
    27	(17.1549057808dB,0°)
    28	(17.3115978466dB,0°)
    29	(17.1548947531dB,0°)
    30	(17.3115809472dB,0°)
    31	(17.1549040416dB,0°)
    32	(17.1549014609dB,0°)
    33	(17.1548993385dB,0°)
    34	(17.3115719231dB,0°)
    35	(17.1549040416dB,0°)
    36	(17.3115978466dB,0°)
    37	(17.3116034935dB,0°)
    38	(17.3115614058dB,0°)
    39	(17.1548996341dB,0°)
    40	(16.9985609764dB,0°)
    41	(17.3115765397dB,0°)
    42	(17.154906145dB,0°)
    43	(16.9985293692dB,0°)
    44	(17.1548802397dB,0°)
    45	(17.311602254dB,0°)
    46	(17.1548971137dB,0°)
    47	(17.3115979966dB,0°)
    48	(17.1548989815dB,0°)
    49	(16.9985295476dB,0°)
    50	(17.1548780149dB,0°)

Measurement: f_cutoff_fts
  step	mag(V(vfts))=target_3dB_fts 
     1	0.0481629407413
     2	0.0472092167916
     3	0.0543322781803
     4	0.0508578701222
     5	0.0508578700228
     6	0.0505286462894
     7	0.0551078625046
     8	0.0505863617826
     9	0.0471701697398
    10	0.0508578700228
    11	0.0547956317014
    12	0.0471701697398
    13	0.0512763634858
    14	0.0516203549899
    15	0.0505286463873
    16	0.0508646810157
    17	0.0471701696135
    18	0.0505286461934
    19	0.0509257353888
    20	0.0508578700228
    21	0.0547956318166
    22	0.0475703475262
    23	0.0481629404737
    24	0.0551078625046
    25	0.0512134745766
    26	0.0547956318166
    27	0.0512733732202
    28	0.0550709394125
    29	0.0509257355386
    30	0.05127337337
    31	0.0505286462894
    32	0.050918498746
    33	0.0512160716847
    34	0.0516203551454
    35	0.0505286462894
    36	0.0550709394125
    37	0.0551078626235
    38	0.0471701698687
    39	0.0508578701222
    40	0.0543739073967
    41	0.0516083128772
    42	0.0512134746735
    43	0.0516203548375
    44	0.0478512188831
    45	0.054751015207
    46	0.0515588917128
    47	0.0543322782981
    48	0.0512763633352
    49	0.0509257353888
    50	0.0482172032373
