LTspice 26.0.2 for Windows
Circuit: C:\Users\botaa\Documents\Licenta\Licenta\SimulariLtspice\Tolerante\Toleranta NOTCH.net
Start Time: Wed Jul  1 17:33:49 2026

.step run=1
solver = Normal
Maximum thread count: 12
tnom = 27
temp = 27
method = trap
Instance "u3:m1": Length shorter than recommended for a level 1 MOSFET.
Instance "u3:m2": Length shorter than recommended for a level 1 MOSFET.
Instance "u3:m16": Length shorter than recommended for a level 1 MOSFET.
Instance "u3:m3": Length shorter than recommended for a level 1 MOSFET.
Instance "u3:m4": Length shorter than recommended for a level 1 MOSFET.
Instance "u3:m15": Length shorter than recommended for a level 1 MOSFET.
Instance "u4:m1": Length shorter than recommended for a level 1 MOSFET.
Instance "u4:m2": Length shorter than recommended for a level 1 MOSFET.
Instance "u4:m16": Length shorter than recommended for a level 1 MOSFET.
Instance "u4:m3": Length shorter than recommended for a level 1 MOSFET.
Instance "u4:m4": Length shorter than recommended for a level 1 MOSFET.
Instance "u4:m15": Length shorter than recommended for a level 1 MOSFET.
Direct Newton iteration failed to find operating point.
Starting Gmin stepping
Gmin stepping succeeded in finding the operating point.


.step run=2
Direct Newton iteration failed to find operating point.
Starting Gmin stepping
Gmin stepping succeeded in finding the operating point.


.step run=3
Direct Newton iteration failed to find operating point.
Starting Gmin stepping
Gmin stepping succeeded in finding the operating point.


.step run=4
Direct Newton iteration failed to find operating point.
Starting Gmin stepping
Gmin stepping succeeded in finding the operating point.


.step run=5
Direct Newton iteration failed to find operating point.
Starting Gmin stepping
Gmin stepping succeeded in finding the operating point.


.step run=6
Direct Newton iteration failed to find operating point.
Starting Gmin stepping
Gmin stepping succeeded in finding the operating point.


.step run=7
Direct Newton iteration failed to find operating point.
Starting Gmin stepping
Gmin stepping succeeded in finding the operating point.


.step run=8
Direct Newton iteration failed to find operating point.
Starting Gmin stepping
Gmin stepping succeeded in finding the operating point.


.step run=9
Direct Newton iteration failed to find operating point.
Starting Gmin stepping
Gmin stepping succeeded in finding the operating point.


.step run=10
Direct Newton iteration failed to find operating point.
Starting Gmin stepping
Gmin stepping succeeded in finding the operating point.


.step run=11
Direct Newton iteration failed to find operating point.
Starting Gmin stepping
Gmin stepping succeeded in finding the operating point.


.step run=12
Direct Newton iteration failed to find operating point.
Starting Gmin stepping
Gmin stepping succeeded in finding the operating point.


.step run=13
Direct Newton iteration failed to find operating point.
Starting Gmin stepping
Gmin stepping succeeded in finding the operating point.


.step run=14
Direct Newton iteration failed to find operating point.
Starting Gmin stepping
Gmin stepping succeeded in finding the operating point.


.step run=15
Direct Newton iteration failed to find operating point.
Starting Gmin stepping
Gmin stepping succeeded in finding the operating point.


.step run=16
Direct Newton iteration failed to find operating point.
Starting Gmin stepping
Gmin stepping succeeded in finding the operating point.


.step run=17
Direct Newton iteration failed to find operating point.
Starting Gmin stepping
Gmin stepping succeeded in finding the operating point.


.step run=18
Direct Newton iteration failed to find operating point.
Starting Gmin stepping
Gmin stepping succeeded in finding the operating point.


.step run=19
Direct Newton iteration failed to find operating point.
Starting Gmin stepping
Gmin stepping succeeded in finding the operating point.


.step run=20
Direct Newton iteration failed to find operating point.
Starting Gmin stepping
Gmin stepping succeeded in finding the operating point.


.step run=21
Direct Newton iteration failed to find operating point.
Starting Gmin stepping
Gmin stepping succeeded in finding the operating point.


.step run=22
Direct Newton iteration failed to find operating point.
Starting Gmin stepping
Gmin stepping succeeded in finding the operating point.


.step run=23
Direct Newton iteration failed to find operating point.
Starting Gmin stepping
Gmin stepping succeeded in finding the operating point.


.step run=24
Direct Newton iteration failed to find operating point.
Starting Gmin stepping
Gmin stepping succeeded in finding the operating point.


.step run=25
Direct Newton iteration failed to find operating point.
Starting Gmin stepping
Gmin stepping succeeded in finding the operating point.


.step run=26
Direct Newton iteration failed to find operating point.
Starting Gmin stepping
Gmin stepping succeeded in finding the operating point.


.step run=27
Direct Newton iteration failed to find operating point.
Starting Gmin stepping
Gmin stepping succeeded in finding the operating point.


.step run=28
Direct Newton iteration failed to find operating point.
Starting Gmin stepping
Gmin stepping succeeded in finding the operating point.


.step run=29
Direct Newton iteration failed to find operating point.
Starting Gmin stepping
Gmin stepping succeeded in finding the operating point.


.step run=30
Direct Newton iteration failed to find operating point.
Starting Gmin stepping
Gmin stepping succeeded in finding the operating point.


.step run=31
Direct Newton iteration failed to find operating point.
Starting Gmin stepping
Gmin stepping succeeded in finding the operating point.


.step run=32
Direct Newton iteration failed to find operating point.
Starting Gmin stepping
Gmin stepping succeeded in finding the operating point.


.step run=33
Direct Newton iteration failed to find operating point.
Starting Gmin stepping
Gmin stepping succeeded in finding the operating point.


.step run=34
Direct Newton iteration failed to find operating point.
Starting Gmin stepping
Gmin stepping succeeded in finding the operating point.


.step run=35
Direct Newton iteration failed to find operating point.
Starting Gmin stepping
Gmin stepping succeeded in finding the operating point.


.step run=36
Direct Newton iteration failed to find operating point.
Starting Gmin stepping
Gmin stepping succeeded in finding the operating point.


.step run=37
Direct Newton iteration failed to find operating point.
Starting Gmin stepping
Gmin stepping succeeded in finding the operating point.


.step run=38
Direct Newton iteration failed to find operating point.
Starting Gmin stepping
Gmin stepping succeeded in finding the operating point.


.step run=39
Direct Newton iteration failed to find operating point.
Starting Gmin stepping
Gmin stepping succeeded in finding the operating point.


.step run=40
Direct Newton iteration failed to find operating point.
Starting Gmin stepping
Gmin stepping succeeded in finding the operating point.


.step run=41
Direct Newton iteration failed to find operating point.
Starting Gmin stepping
Gmin stepping succeeded in finding the operating point.


.step run=42
Direct Newton iteration failed to find operating point.
Starting Gmin stepping
Gmin stepping succeeded in finding the operating point.


.step run=43
Direct Newton iteration failed to find operating point.
Starting Gmin stepping
Gmin stepping succeeded in finding the operating point.


.step run=44
Direct Newton iteration failed to find operating point.
Starting Gmin stepping
Gmin stepping succeeded in finding the operating point.


.step run=45
Direct Newton iteration failed to find operating point.
Starting Gmin stepping
Gmin stepping succeeded in finding the operating point.


.step run=46
Direct Newton iteration failed to find operating point.
Starting Gmin stepping
Gmin stepping succeeded in finding the operating point.


.step run=47
Direct Newton iteration failed to find operating point.
Starting Gmin stepping
Gmin stepping succeeded in finding the operating point.


.step run=48
Direct Newton iteration failed to find operating point.
Starting Gmin stepping
Gmin stepping succeeded in finding the operating point.


.step run=49
Direct Newton iteration failed to find operating point.
Starting Gmin stepping
Gmin stepping succeeded in finding the operating point.


.step run=50
Direct Newton iteration failed to find operating point.
Starting Gmin stepping
Gmin stepping succeeded in finding the operating point.

Total elapsed time: 26.073 seconds.

Files loaded:
C:\Users\botaa\Documents\Licenta\Licenta\SimulariLtspice\Tolerante\Toleranta NOTCH.net
C:\Users\botaa\Documents\Licenta\Licenta\SimulariLtspice\Tolerante\ad8534.cir
C:\Users\botaa\Documents\Licenta\Licenta\SimulariLtspice\Tolerante\BZX84C3V3.spice.txt


Measurement: atenuare_max
  step	MIN(mag(V(vnotch)))	FROM	TO
     1	(-36.2746690872dB,0°)	0.01	300
     2	(-32.6609772133dB,0°)	0.01	300
     3	(-30.860494796dB,0°)	0.01	300
     4	(-31.4073310827dB,0°)	0.01	300
     5	(-30.8859204445dB,0°)	0.01	300
     6	(-51.1092286336dB,0°)	0.01	300
     7	(-36.4244960928dB,0°)	0.01	300
     8	(-36.7446883641dB,0°)	0.01	300
     9	(-36.4478720568dB,0°)	0.01	300
    10	(-39.7999557882dB,0°)	0.01	300
    11	(-30.9459907584dB,0°)	0.01	300
    12	(-31.3258584273dB,0°)	0.01	300
    13	(-40.4467355672dB,0°)	0.01	300
    14	(-39.7999557882dB,0°)	0.01	300
    15	(-40.4467355451dB,0°)	0.01	300
    16	(-35.8428247725dB,0°)	0.01	300
    17	(-36.2664142384dB,0°)	0.01	300
    18	(-39.3078783569dB,0°)	0.01	300
    19	(-32.9326830454dB,0°)	0.01	300
    20	(-39.3166306721dB,0°)	0.01	300
    21	(-33.1390733898dB,0°)	0.01	300
    22	(-40.6841453056dB,0°)	0.01	300
    23	(-33.0308487007dB,0°)	0.01	300
    24	(-39.3166306721dB,0°)	0.01	300
    25	(-36.29208522dB,0°)	0.01	300
    26	(-39.325374155dB,0°)	0.01	300
    27	(-36.8934409706dB,0°)	0.01	300
    28	(-40.4554169645dB,0°)	0.01	300
    29	(-32.5675225691dB,0°)	0.01	300
    30	(-36.8934409706dB,0°)	0.01	300
    31	(-39.5559835022dB,0°)	0.01	300
    32	(-39.5559835022dB,0°)	0.01	300
    33	(-35.9835046451dB,0°)	0.01	300
    34	(-31.3440220764dB,0°)	0.01	300
    35	(-51.9470947912dB,0°)	0.01	300
    36	(-51.9382694134dB,0°)	0.01	300
    37	(-52.85587706dB,0°)	0.01	300
    38	(-32.9326830454dB,0°)	0.01	300
    39	(-51.9472255248dB,0°)	0.01	300
    40	(-31.3349744033dB,0°)	0.01	300
    41	(-33.0399662392dB,0°)	0.01	300
    42	(-39.7445692549dB,0°)	0.01	300
    43	(-36.4387459465dB,0°)	0.01	300
    44	(-39.973012399dB,0°)	0.01	300
    45	(-40.4643389619dB,0°)	0.01	300
    46	(-31.3440607364dB,0°)	0.01	300
    47	(-32.9417292617dB,0°)	0.01	300
    48	(-35.842854273dB,0°)	0.01	300
    49	(-36.8844764959dB,0°)	0.01	300
    50	(-39.7445692549dB,0°)	0.01	300

Measurement: freq_centrala
  step	mag(V(vnotch))=atenuare_max
     1	50.6261566081
     2	48.9658644916
     3	failed
     4	51.5198992107
     5	failed
     6	52.5936069401
     7	failed
     8	49.5850906894
     9	49.6220847895
    10	failed
    11	48.684980104
    12	51.4819523274
    13	failed
    14	failed
    15	failed
    16	50.6261407611
    17	50.6261566338
    18	failed
    19	51.1861119581
    20	failed
    21	failed
    22	49.4122928154
    23	failed
    24	failed
    25	50.6261566789
    26	failed
    27	49.6220847337
    28	failed
    29	49.0004422793
    30	49.6220847337
    31	50.9180353269
    32	50.9180353269
    33	failed
    34	51.4819523282
    35	failed
    36	failed
    37	failed
    38	51.1861119581
    39	failed
    40	51.4819523299
    41	failed
    42	failed
    43	49.622084787
    44	failed
    45	failed
    46	51.4819523303
    47	51.1861121617
    48	50.6261413783
    49	49.6220847328
    50	failed
