LTspice 26.0.1 for Windows
Circuit: \\wsl.localhost\Ubuntu\home\andrei\Licenta\SimulariLtspice\Alimentare\LDO.net
Start Time: Sun Mar 22 14:49:25 2026
solver = Normal
Maximum thread count: 20
tnom = 27
temp = 27
method = trap
Direct Newton iteration succeeded in finding operating point.
Total elapsed time: 0.174 seconds.

Files loaded:
\\wsl.localhost\Ubuntu\home\andrei\Licenta\SimulariLtspice\Alimentare\LDO.net
\\wsl.localhost\Ubuntu\home\andrei\Licenta\SimulariLtspice\Alimentare\BZX84C3V3.spice.txt
C:\Users\Andrei\AppData\Local\LTspice\lib\sub\ADP151-x.x.sub

