LTspice 24.1.10 for Windows
Circuit: C:\users\andrei\Documents\Licenta\SimulariLtspice\Ina+Integrator\Ina.net
Start Time: Sat Dec 20 15:42:26 2025
solver = Normal
Maximum thread count: 12
tnom = 27
temp = 27
method = trap
Direct Newton iteration for .op point succeeded.
Total elapsed time: 0.193 seconds.

Files loaded:
C:\users\andrei\Documents\Licenta\SimulariLtspice\Ina+Integrator\Ina.net
C:\users\andrei\AppData\Local\LTspice\lib\sub\MAX41400.sub

