LTspice 24.1.10 for Windows
Circuit: C:\users\andrei\Documents\Licenta\SimulariLtspice\RLD\Draft2.net
Start Time: Tue Dec 30 10:12:39 2025
solver = Normal
Maximum thread count: 12
tnom = 27
temp = 27
method = trap
Instance "u1:m1": Length shorter than recommended for a level 1 MOSFET.
Instance "u1:m2": Length shorter than recommended for a level 1 MOSFET.
Instance "u1:m16": Length shorter than recommended for a level 1 MOSFET.
Instance "u1:m3": Length shorter than recommended for a level 1 MOSFET.
Instance "u1:m4": Length shorter than recommended for a level 1 MOSFET.
Instance "u1:m15": Length shorter than recommended for a level 1 MOSFET.
Instance "u2:m1": Length shorter than recommended for a level 1 MOSFET.
Instance "u2:m2": Length shorter than recommended for a level 1 MOSFET.
Instance "u2:m16": Length shorter than recommended for a level 1 MOSFET.
Instance "u2:m3": Length shorter than recommended for a level 1 MOSFET.
Instance "u2:m4": Length shorter than recommended for a level 1 MOSFET.
Instance "u2:m15": Length shorter than recommended for a level 1 MOSFET.
Direct Newton iteration failed to find .op point.  (Use ".option noopiter" to skip.)
Starting Gmin stepping
Gmin = 10
Gmin = 1.07374
Gmin = 0.115292
Gmin = 0.0123794
Gmin = 0.00132923
Gmin = 0.000142725
Gmin = 1.5325e-05
Gmin = 1.6455e-06
vernier = 0.5
Gmin = 4.20774e-07
vernier = 0.666667
vernier = 0.888888
Gmin = 8.12392e-08
vernier = 1
Gmin = 9.33136e-09
Gmin = 1.00195e-09
Gmin = 1.07583e-10
Gmin = 1.15517e-11
Gmin = 1.24035e-12
Gmin = 1.33182e-13
Gmin = 0
Gmin stepping succeeded in finding the operating point.

Total elapsed time: 0.087 seconds.

Files loaded:
C:\users\andrei\Documents\Licenta\SimulariLtspice\RLD\Draft2.net
C:\users\andrei\Documents\Licenta\SimulariLtspice\RLD\ad8534.cir

