LTspice 24.1.10 for Windows
Circuit: C:\users\andrei\Documents\Licenta\SimulariLtspice\RLD\LDO.net
Start Time: Sat Jan  3 20:35:51 2026
solver = Normal
Maximum thread count: 12
tnom = 27
temp = 27
method = trap
Direct Newton iteration for .op point succeeded.
Total elapsed time: 0.134 seconds.

Files loaded:
C:\users\andrei\Documents\Licenta\SimulariLtspice\RLD\LDO.net
C:\users\andrei\AppData\Local\LTspice\lib\sub\ADP151-x.x.sub

