LTspice 26.0.2 for Windows
Circuit: C:\Users\botaa\Documents\Licenta\Licenta\SimulariLtspice\Tolerante\Toleranta NOTCH.net
Start Time: Fri Jun 12 16:56:06 2026

.step run=1
solver = Normal
Maximum thread count: 12
tnom = 27
temp = 27
method = trap
Instance "u3:m1": Length shorter than recommended for a level 1 MOSFET.
Instance "u3:m2": Length shorter than recommended for a level 1 MOSFET.
Instance "u3:m16": Length shorter than recommended for a level 1 MOSFET.
Instance "u3:m3": Length shorter than recommended for a level 1 MOSFET.
Instance "u3:m4": Length shorter than recommended for a level 1 MOSFET.
Instance "u3:m15": Length shorter than recommended for a level 1 MOSFET.
Instance "u4:m1": Length shorter than recommended for a level 1 MOSFET.
Instance "u4:m2": Length shorter than recommended for a level 1 MOSFET.
Instance "u4:m16": Length shorter than recommended for a level 1 MOSFET.
Instance "u4:m3": Length shorter than recommended for a level 1 MOSFET.
Instance "u4:m4": Length shorter than recommended for a level 1 MOSFET.
Instance "u4:m15": Length shorter than recommended for a level 1 MOSFET.
Direct Newton iteration failed to find operating point.
Starting Gmin stepping
Gmin stepping succeeded in finding the operating point.


.step run=2
Direct Newton iteration failed to find operating point.
Starting Gmin stepping
Gmin stepping succeeded in finding the operating point.


.step run=3
Direct Newton iteration failed to find operating point.
Starting Gmin stepping
Gmin stepping succeeded in finding the operating point.


.step run=4
Direct Newton iteration failed to find operating point.
Starting Gmin stepping
Gmin stepping succeeded in finding the operating point.


.step run=5
Direct Newton iteration failed to find operating point.
Starting Gmin stepping
Gmin stepping succeeded in finding the operating point.


.step run=6
Direct Newton iteration failed to find operating point.
Starting Gmin stepping
Gmin stepping succeeded in finding the operating point.


.step run=7
Direct Newton iteration failed to find operating point.
Starting Gmin stepping
Gmin stepping succeeded in finding the operating point.


.step run=8
Direct Newton iteration failed to find operating point.
Starting Gmin stepping
Gmin stepping succeeded in finding the operating point.


.step run=9
Direct Newton iteration failed to find operating point.
Starting Gmin stepping
Gmin stepping succeeded in finding the operating point.


.step run=10
Direct Newton iteration failed to find operating point.
Starting Gmin stepping
Gmin stepping succeeded in finding the operating point.


.step run=11
Direct Newton iteration failed to find operating point.
Starting Gmin stepping
Gmin stepping succeeded in finding the operating point.


.step run=12
Direct Newton iteration failed to find operating point.
Starting Gmin stepping
Gmin stepping succeeded in finding the operating point.


.step run=13
Direct Newton iteration failed to find operating point.
Starting Gmin stepping
Gmin stepping succeeded in finding the operating point.


.step run=14
Direct Newton iteration failed to find operating point.
Starting Gmin stepping
Gmin stepping succeeded in finding the operating point.


.step run=15
Direct Newton iteration failed to find operating point.
Starting Gmin stepping
Gmin stepping succeeded in finding the operating point.


.step run=16
Direct Newton iteration failed to find operating point.
Starting Gmin stepping
Gmin stepping succeeded in finding the operating point.


.step run=17
Direct Newton iteration failed to find operating point.
Starting Gmin stepping
Gmin stepping succeeded in finding the operating point.


.step run=18
Direct Newton iteration failed to find operating point.
Starting Gmin stepping
Gmin stepping succeeded in finding the operating point.


.step run=19
Direct Newton iteration failed to find operating point.
Starting Gmin stepping
Gmin stepping succeeded in finding the operating point.


.step run=20
Direct Newton iteration failed to find operating point.
Starting Gmin stepping
Gmin stepping succeeded in finding the operating point.


.step run=21
Direct Newton iteration failed to find operating point.
Starting Gmin stepping
Gmin stepping succeeded in finding the operating point.


.step run=22
Direct Newton iteration failed to find operating point.
Starting Gmin stepping
Gmin stepping succeeded in finding the operating point.


.step run=23
Direct Newton iteration failed to find operating point.
Starting Gmin stepping
Gmin stepping succeeded in finding the operating point.


.step run=24
Direct Newton iteration failed to find operating point.
Starting Gmin stepping
Gmin stepping succeeded in finding the operating point.


.step run=25
Direct Newton iteration failed to find operating point.
Starting Gmin stepping
Gmin stepping succeeded in finding the operating point.


.step run=26
Direct Newton iteration failed to find operating point.
Starting Gmin stepping
Gmin stepping succeeded in finding the operating point.


.step run=27
Direct Newton iteration failed to find operating point.
Starting Gmin stepping
Gmin stepping succeeded in finding the operating point.


.step run=28
Direct Newton iteration failed to find operating point.
Starting Gmin stepping
Gmin stepping succeeded in finding the operating point.


.step run=29
Direct Newton iteration failed to find operating point.
Starting Gmin stepping
Gmin stepping succeeded in finding the operating point.


.step run=30
Direct Newton iteration failed to find operating point.
Starting Gmin stepping
Gmin stepping succeeded in finding the operating point.


.step run=31
Direct Newton iteration failed to find operating point.
Starting Gmin stepping
Gmin stepping succeeded in finding the operating point.


.step run=32
Direct Newton iteration failed to find operating point.
Starting Gmin stepping
Gmin stepping succeeded in finding the operating point.


.step run=33
Direct Newton iteration failed to find operating point.
Starting Gmin stepping
Gmin stepping succeeded in finding the operating point.


.step run=34
Direct Newton iteration failed to find operating point.
Starting Gmin stepping
Gmin stepping succeeded in finding the operating point.


.step run=35
Direct Newton iteration failed to find operating point.
Starting Gmin stepping
Gmin stepping succeeded in finding the operating point.


.step run=36
Direct Newton iteration failed to find operating point.
Starting Gmin stepping
Gmin stepping succeeded in finding the operating point.


.step run=37
Direct Newton iteration failed to find operating point.
Starting Gmin stepping
Gmin stepping succeeded in finding the operating point.


.step run=38
Direct Newton iteration failed to find operating point.
Starting Gmin stepping
Gmin stepping succeeded in finding the operating point.


.step run=39
Direct Newton iteration failed to find operating point.
Starting Gmin stepping
Gmin stepping succeeded in finding the operating point.


.step run=40
Direct Newton iteration failed to find operating point.
Starting Gmin stepping
Gmin stepping succeeded in finding the operating point.


.step run=41
Direct Newton iteration failed to find operating point.
Starting Gmin stepping
Gmin stepping succeeded in finding the operating point.


.step run=42
Direct Newton iteration failed to find operating point.
Starting Gmin stepping
Gmin stepping succeeded in finding the operating point.


.step run=43
Direct Newton iteration failed to find operating point.
Starting Gmin stepping
Gmin stepping succeeded in finding the operating point.


.step run=44
Direct Newton iteration failed to find operating point.
Starting Gmin stepping
Gmin stepping succeeded in finding the operating point.


.step run=45
Direct Newton iteration failed to find operating point.
Starting Gmin stepping
Gmin stepping succeeded in finding the operating point.


.step run=46
Direct Newton iteration failed to find operating point.
Starting Gmin stepping
Gmin stepping succeeded in finding the operating point.


.step run=47
Direct Newton iteration failed to find operating point.
Starting Gmin stepping
Gmin stepping succeeded in finding the operating point.


.step run=48
Direct Newton iteration failed to find operating point.
Starting Gmin stepping
Gmin stepping succeeded in finding the operating point.


.step run=49
Direct Newton iteration failed to find operating point.
Starting Gmin stepping
Gmin stepping succeeded in finding the operating point.


.step run=50
Direct Newton iteration failed to find operating point.
Starting Gmin stepping
Gmin stepping succeeded in finding the operating point.

Total elapsed time: 2.580 seconds.

Files loaded:
C:\Users\botaa\Documents\Licenta\Licenta\SimulariLtspice\Tolerante\Toleranta NOTCH.net
C:\Users\botaa\Documents\Licenta\Licenta\SimulariLtspice\Tolerante\ad8534.cir
C:\Users\botaa\Documents\Licenta\Licenta\SimulariLtspice\Tolerante\BZX84C3V3.spice.txt


Measurement: rejection_at_50hz
  step	mag(V(vnotch)) 	at
     1	(-34.1101212934dB,0°)	50
     2	(-30.0393950538dB,0°)	50
     3	(-28.2065564534dB,0°)	50
     4	(-27.8533815987dB,0°)	50
     5	(-28.2319985709dB,0°)	50
     6	(-25.8021113938dB,0°)	50
     7	(-34.4092503827dB,0°)	50
     8	(-35.560215043dB,0°)	50
     9	(-35.4195371101dB,0°)	50
    10	(-35.2983584959dB,0°)	50
    11	(-28.1387787886dB,0°)	50
    12	(-27.9357845965dB,0°)	50
    13	(-36.1273351074dB,0°)	50
    14	(-35.2983584959dB,0°)	50
    15	(-36.1273350854dB,0°)	50
    16	(-33.6774031936dB,0°)	50
    17	(-34.1018572698dB,0°)	50
    18	(-33.4989330527dB,0°)	50
    19	(-29.705075979dB,0°)	50
    20	(-33.507691517dB,0°)	50
    21	(-29.5132049454dB,0°)	50
    22	(-36.5593418861dB,0°)	50
    23	(-29.6058936826dB,0°)	50
    24	(-33.507691517dB,0°)	50
    25	(-34.1275645457dB,0°)	50
    26	(-33.5164411416dB,0°)	50
    27	(-35.8639662173dB,0°)	50
    28	(-36.1359959423dB,0°)	50
    29	(-30.1281637333dB,0°)	50
    30	(-35.8639662173dB,0°)	50
    31	(-33.6332243627dB,0°)	50
    32	(-33.6332243627dB,0°)	50
    33	(-33.9673294351dB,0°)	50
    34	(-27.9539138151dB,0°)	50
    35	(-25.9381704729dB,0°)	50
    36	(-25.9293689753dB,0°)	50
    37	(-26.0585761367dB,0°)	50
    38	(-29.705075979dB,0°)	50
    39	(-25.9383030695dB,0°)	50
    40	(-27.9448980526dB,0°)	50
    41	(-29.6150048462dB,0°)	50
    42	(-33.9361012758dB,0°)	50
    43	(-35.4104398754dB,0°)	50
    44	(-34.2853861786dB,0°)	50
    45	(-36.1448993945dB,0°)	50
    46	(-27.9539671679dB,0°)	50
    47	(-29.7141058599dB,0°)	50
    48	(-33.677436491dB,0°)	50
    49	(-35.8550264633dB,0°)	50
    50	(-33.9361012758dB,0°)	50

Measurement: max_gain
  step	MAX(mag(V(vnotch)))	FROM	TO
     1	(0.0387794134474dB,0°)	0.01	300
     2	(0.038779406803dB,0°)	0.01	300
     3	(0.0387793965102dB,0°)	0.01	300
     4	(0.038779472438dB,0°)	0.01	300
     5	(0.0387793923862dB,0°)	0.01	300
     6	(0.0387794931526dB,0°)	0.01	300
     7	(0.0387794171103dB,0°)	0.01	300
     8	(0.0387793904878dB,0°)	0.01	300
     9	(0.0387794546307dB,0°)	0.01	300
    10	(0.0387794409304dB,0°)	0.01	300
    11	(0.0387793948486dB,0°)	0.01	300
    12	(0.0387794721446dB,0°)	0.01	300
    13	(0.0387793742484dB,0°)	0.01	300
    14	(0.0387794409304dB,0°)	0.01	300
    15	(0.0387793851608dB,0°)	0.01	300
    16	(0.0387794818089dB,0°)	0.01	300
    17	(0.0387794147137dB,0°)	0.01	300
    18	(0.0387794895301dB,0°)	0.01	300
    19	(0.0387794642537dB,0°)	0.01	300
    20	(0.0387794828053dB,0°)	0.01	300
    21	(0.0387794635419dB,0°)	0.01	300
    22	(0.038779378581dB,0°)	0.01	300
    23	(0.0387794591349dB,0°)	0.01	300
    24	(0.0387794828053dB,0°)	0.01	300
    25	(0.0387794106268dB,0°)	0.01	300
    26	(0.0387794870026dB,0°)	0.01	300
    27	(0.0387793853794dB,0°)	0.01	300
    28	(0.0387793726811dB,0°)	0.01	300
    29	(0.038779401687dB,0°)	0.01	300
    30	(0.0387793853794dB,0°)	0.01	300
    31	(0.0387794195485dB,0°)	0.01	300
    32	(0.0387794195485dB,0°)	0.01	300
    33	(0.0387794815015dB,0°)	0.01	300
    34	(0.0387794694464dB,0°)	0.01	300
    35	(0.0387794915615dB,0°)	0.01	300
    36	(0.0387794982787dB,0°)	0.01	300
    37	(0.0387794979877dB,0°)	0.01	300
    38	(0.0387794642537dB,0°)	0.01	300
    39	(0.0387794969732dB,0°)	0.01	300
    40	(0.0387794707744dB,0°)	0.01	300
    41	(0.0387794685515dB,0°)	0.01	300
    42	(0.038779421882dB,0°)	0.01	300
    43	(0.0387794560009dB,0°)	0.01	300
    44	(0.0387794242931dB,0°)	0.01	300
    45	(0.038779376626dB,0°)	0.01	300
    46	(0.0387794639614dB,0°)	0.01	300
    47	(0.0387794574335dB,0°)	0.01	300
    48	(0.0387794762792dB,0°)	0.01	300
    49	(0.0387793923364dB,0°)	0.01	300
    50	(0.038779421882dB,0°)	0.01	300

Measurement: freq_min
  step	mag(V(vnotch))=1
     1	2.3504258527
     2	2.33013548583
     3	2.32217837095
     4	2.45565102339
     5	2.31552667302
     6	2.50707363989
     7	2.34747310973
     8	2.3041748019
     9	2.42172357839
    10	2.40700941964
    11	2.31942958331
    12	2.45514538271
    13	2.29588091197
    14	2.40700941964
    15	2.2958812329
    16	2.47323647725
    17	2.35254682244
    18	2.48846129613
    19	2.43997147479
    20	2.48595747037
    21	2.43860584552
    22	2.29413128402
    23	2.44063303443
    24	2.48595747037
    25	2.34582740121
    26	2.48346393981
    27	2.30471919867
    28	2.29359682998
    29	2.33060509405
    30	2.30471919867
    31	2.36056061941
    32	2.36056061941
    33	2.47260559067
    34	2.44994467132
    35	2.50390530209
    36	2.50648444819
    37	2.50584476879
    38	2.43997147479
    39	2.50385465083
    40	2.45239768112
    41	2.43793996479
    42	2.36460840743
    43	2.42432295757
    44	2.35942870956
    45	2.2913017709
    46	2.44979011327
    47	2.43741566989
    48	2.47315407314
    49	2.30706705009
    50	2.36460840743
