LTspice 26.0.1 for Windows
Circuit: C:\Users\botaa\Documents\Licenta\Licenta\SimulariLtspice\Tolerante\Toleranta GAIN.net
Start Time: Tue May  5 14:14:47 2026
Options:gmin=1n abstol=1n reltol=0.01 noopiter

.step run=1
solver = Normal
Maximum thread count: 12
tnom = 27
temp = 27
method = trap
gmin = 1e-09
abstol = 1e-09
reltol = 0.01
noOpIter = true
Instance "u1:m1": Length shorter than recommended for a level 1 MOSFET.
Instance "u1:m2": Length shorter than recommended for a level 1 MOSFET.
Instance "u1:m16": Length shorter than recommended for a level 1 MOSFET.
Instance "u1:m3": Length shorter than recommended for a level 1 MOSFET.
Instance "u1:m4": Length shorter than recommended for a level 1 MOSFET.
Instance "u1:m15": Length shorter than recommended for a level 1 MOSFET.
Instance "u3:m1": Length shorter than recommended for a level 1 MOSFET.
Instance "u3:m2": Length shorter than recommended for a level 1 MOSFET.
Instance "u3:m16": Length shorter than recommended for a level 1 MOSFET.
Instance "u3:m3": Length shorter than recommended for a level 1 MOSFET.
Instance "u3:m4": Length shorter than recommended for a level 1 MOSFET.
Instance "u3:m15": Length shorter than recommended for a level 1 MOSFET.
Instance "u4:m1": Length shorter than recommended for a level 1 MOSFET.
Instance "u4:m2": Length shorter than recommended for a level 1 MOSFET.
Instance "u4:m16": Length shorter than recommended for a level 1 MOSFET.
Instance "u4:m3": Length shorter than recommended for a level 1 MOSFET.
Instance "u4:m4": Length shorter than recommended for a level 1 MOSFET.
Instance "u4:m15": Length shorter than recommended for a level 1 MOSFET.
Instance "u5:m1": Length shorter than recommended for a level 1 MOSFET.
Instance "u5:m2": Length shorter than recommended for a level 1 MOSFET.
Instance "u5:m16": Length shorter than recommended for a level 1 MOSFET.
Instance "u5:m3": Length shorter than recommended for a level 1 MOSFET.
Instance "u5:m4": Length shorter than recommended for a level 1 MOSFET.
Instance "u5:m15": Length shorter than recommended for a level 1 MOSFET.
Instance "u7:m1": Length shorter than recommended for a level 1 MOSFET.
Instance "u7:m2": Length shorter than recommended for a level 1 MOSFET.
Instance "u7:m16": Length shorter than recommended for a level 1 MOSFET.
Instance "u7:m3": Length shorter than recommended for a level 1 MOSFET.
Instance "u7:m4": Length shorter than recommended for a level 1 MOSFET.
Instance "u7:m15": Length shorter than recommended for a level 1 MOSFET.
Instance "u8:m1": Length shorter than recommended for a level 1 MOSFET.
Instance "u8:m2": Length shorter than recommended for a level 1 MOSFET.
Instance "u8:m16": Length shorter than recommended for a level 1 MOSFET.
Instance "u8:m3": Length shorter than recommended for a level 1 MOSFET.
Instance "u8:m4": Length shorter than recommended for a level 1 MOSFET.
Instance "u8:m15": Length shorter than recommended for a level 1 MOSFET.
Instance "u9:m1": Length shorter than recommended for a level 1 MOSFET.
Instance "u9:m2": Length shorter than recommended for a level 1 MOSFET.
Instance "u9:m16": Length shorter than recommended for a level 1 MOSFET.
Instance "u9:m3": Length shorter than recommended for a level 1 MOSFET.
Instance "u9:m4": Length shorter than recommended for a level 1 MOSFET.
Instance "u9:m15": Length shorter than recommended for a level 1 MOSFET.
Instance "u10:m1": Length shorter than recommended for a level 1 MOSFET.
Instance "u10:m2": Length shorter than recommended for a level 1 MOSFET.
Instance "u10:m16": Length shorter than recommended for a level 1 MOSFET.
Instance "u10:m3": Length shorter than recommended for a level 1 MOSFET.
Instance "u10:m4": Length shorter than recommended for a level 1 MOSFET.
Instance "u10:m15": Length shorter than recommended for a level 1 MOSFET.
Direct Newton iteration for .op point skipped.
Starting Gmin stepping
Gmin stepping failed to find operating point. Use".option gminsteps=0" to skip all Gmin stepping.
Starting source stepping with srcstepmethod=0
Source stepping succeeded in finding the operating point.


.step run=2
Direct Newton iteration for .op point skipped.
Starting Gmin stepping
Gmin stepping failed to find operating point. Use".option gminsteps=0" to skip all Gmin stepping.
Starting source stepping with srcstepmethod=0
Source stepping succeeded in finding the operating point.


.step run=3
Direct Newton iteration for .op point skipped.
Starting Gmin stepping
Gmin stepping failed to find operating point. Use".option gminsteps=0" to skip all Gmin stepping.
Starting source stepping with srcstepmethod=0

Simulation stopped by user.
Total elapsed time: 1590.615 seconds.

Files loaded:
C:\Users\botaa\Documents\Licenta\Licenta\SimulariLtspice\Tolerante\Toleranta GAIN.net
C:\Users\botaa\Documents\Licenta\Licenta\SimulariLtspice\Tolerante\ad8534.cir
C:\Users\botaa\Documents\Licenta\Licenta\SimulariLtspice\Tolerante\BZX84C3V3.spice.txt
C:\Users\botaa\AppData\Local\LTspice\lib\sub\ADP151-x.x.sub
C:\Users\botaa\AppData\Local\LTspice\lib\sub\MAX41400.sub

